#! VB(6)/D95 PRINTALL

TEST C2H2 TRIPLE BOND (3 BANANA BONDS, 6 ELECTRONS)

0 1
6   .528275  0.305   0.0
6  -.528275 -0.305   0.0
1  1.463583  0.845   0.0
1 -1.463583 -0.845   0.0


 $LMOGRPMODIFY
 7
 1,1
 2,1
 3,2
 4,1
 5,1
 6,2
 7,2
 
  $02VBORB
  (1->2) + 1^
  (2->1) + 2^
  (1->2) - 0.5 (1^) + 0.866025 (1^(2))
  (2->1) - 0.5 (2^) + 0.866025 (2^(2))
  (1->2) - 0.5 (1^) - 0.866025 (1^(2))
  (2->1) - 0.5 (2^) - 0.866025 (2^(2))


