#! GPF(2)/D95 UNITS=BOHR RESTART PRINTALL

TEST SC CALCULATION OF BANANA BOND

0 1
6     0.0000000000        0.0000000000        1.152750
6     0.0000000000        0.0000000000       -1.152750
1     0.0                 0.000000            3.19365
1     0.0                 0.000000           -3.19365

             
 $GENCTL
 4,10
 1,2

 $02VBSTR
 4
 1 2 7 8 9 10 3 4 5 6
 1 8 2 7 9 10 3 4 5 6
 9 2 7 8 1 10 3 4 5 6
 1 2 7 10 8 9 3 4 5 6 

 $RESTARTFILE
 'c2h2oldbanana.V84'

 $HESSCONST
 0.05

