#! GPF(2)/D95 UNITS=BOHR

TEST2

0 1
6     0.0000000000        0.0000000000        1.152750
6     0.0000000000        0.0000000000       -1.152750
1     0.0                 0.000000            3.19365
1     0.0                 0.000000           -3.19365

 $GENCTL
 4,10
 1,2

 $VBSCF
 0.0001,35

 $02VBSTR
 3
 1 2 3 4 5 6 7 8 9 10
 3 3 1 4 5 6 7 8 9 10
 3 3 4 4 5 6 7 8 9 10

