#! VB(18)/D95 PRINTALL 

TEST C2H6 (7 SIGMA BONDS)

0 1
6   .000000   .000000   .000000
6   .000000   .000000  1.540011
1  1.027669   .000000  -.363311
1  -.513834  -.889987  -.363311
1  -.513834   .889987  -.363311
1 -1.027669   .000000  1.903322
1   .513834   .889987  1.903322
1   .513834  -.889987  1.903322

 $GRPDIM
 9

 $DPWEIGHT
 1000000.0

 $WSTART
 0.1

 $01LENHANCE
 1,1,1
 2,1,2
 3,2,1,2
 4,2,2,7
 5,2,1,5
 6,2,2,8
 7,2,2,6
 8,2,1,3
 9,2,1,4

 $MACROITER
 1000

