#! SCVB(6)/D95 UNITS=BOHR  

TEST BENZENE

0 1
6    .000000         2.637000     .000000
1    .000000         4.688000     .000000
6   2.28370898978    1.318500     .000000
1   4.05992709294    2.344000     .000000
6   2.28370898978   -1.318500     .000000
1   4.05992709294   -2.344000     .000000
6    .000000        -2.637000     .000000 
1    .000000        -4.688000     .000000  
6  -2.28370898978   -1.318500     .000000
1  -4.05992709294   -2.344000     .000000
6  -2.28370898978    1.318500     .000000
1  -4.05992709294    2.344000     .000000


 $GENCTL
 36,6
  1,2

 $GRPDIM
  18,12

 $PIORB
 12
 7,19,31,43,55,67,10,22,34,46,58,70
 2,2,2,2,2,2,2,2,2,2,2,2


 $02VBSTR
 5
   1   2   3   4   5   6
   2   3   4   5   6   1
   1   4   2   3   5   6
   2   5   3   4   6   1
   3   6   4   5   1   2

 $NOTROT
 2
 1,2
 2,3
