#! GPF(14)/STO-3G UNITS=BOHR NOBIAS FROZEN 

TEST BENZENE 14 GROUPS (1 FROZEN CORE GROUP  + 12 SIGMA BONDS + 1 PI-GROUP)

0 1
6    .000000         2.637000     .000000
1    .000000         4.688000     .000000
6   2.28370898978    1.318500     .000000
1   4.05992709294    2.344000     .000000
6   2.28370898978   -1.318500     .000000
1   4.05992709294   -2.344000     .000000
6    .000000        -2.637000     .000000
1    .000000        -4.688000     .000000
6  -2.28370898978   -1.318500     .000000
1  -4.05992709294   -2.344000     .000000
6  -2.28370898978    1.318500     .000000
1  -4.05992709294    2.344000     .000000

                                     

 $GENCTL 
 12,2,2,2,2,2,2,2,2,2,2,2,2,6
 1,2,2,2,2,2,2,2,2,2,2,2,2,2

 $VBSCF
 0.001,10

 $14VBSTR
 5
   1   2   3   4   5   6
   2   3   4   5   6   1
   1   4   2   3   5   6
   2   5   3   4   6   1
   3   6   4   5   1   2

 $NOTROT
 13
 1,14
 2,14
 3,14
 4,14
 5,14
 6,14
 7,14
 8,14
 9,14
 10,14
 11,14
 12,14
 13,14
