#! SCVB(10)/D95 CIONLY RESTART 

TEST SCVB(10) WITHOUT VBSCF. ASSUME VB ORBITALS ARE AVAILABLE FROM
A PREVIOUS VBSCF CALCULATION WITH SINGLE-STRUCTURE. 

0 1
6   .000000   .000000   .000000
1   .000000   .000000  1.079997
1  1.018239   .000000  -.359977
1  -.509120  -.881820  -.359977
8  -.674111  1.167595  -.476636
1  -.674111  1.167595 -1.426615


 $RESTARTFILE
 'ch3ohvb10.V84'
