#! SCVB(8,8)/D95 PRINTALL

TEST CH4 5 GROUPS (1 CORE + 4 BONDS)

0 1
6   .000000   .000000   .000000
1  -.880321   .417906  -.470561
1   .259946   .591217   .868290
1  -.202850 -1.018388   .304590
1   .823225   .009265  -.702319 

 
 $02VBORB
 MO(2)
 MO(3)
 MO(4)
 MO(5)
 MO(6)
 MO(7)
 MO(8)
 MO(9)
 
 
