#! VB(10)/6-31G* GUESS=READ PRINTALL

TEST SN2 REACTION MECHANISM: CL- + CH3CL -> CLCH3 + CL-
TWO STRUCTURES ARE USED FOR Cl-C-Cl BONDS: Cl-C :Cl + Cl: C-Cl

-1 1
6                     0.000000    0.000000   0.000000
17                    0.000000    0.000000  -2.383018
1                     0.000000    1.061099   0.000000
1                    -0.918939   -0.530549   0.000000
1                     0.918939   -0.530549   0.000000
17                    0.000000    0.000000   2.383018

 $REACTION  
 1,2,6
 GEOM2
 6                    0.000000    0.000000   0.000000
 17                   0.000000    0.000000  -2.383018
 1                    0.000000    1.061099   0.000000
 1                   -0.918939   -0.530549   0.000000
 1                    0.918939   -0.530549   0.000000
 17                   0.000000    0.000000   2.383018
 GEOM
 6                    0.000000    0.000000  -0.591622
 17                   0.000000    0.000000  -2.419329
 1                    0.000000    1.020360  -0.259950
 1                   -0.883658   -0.510180  -0.259950
 1                    0.883658   -0.510180  -0.259950
 17                   0.000000    0.000000   2.674010

 $GRPDIM
 17,9

 $RESTARTFILE
 'clch3cl.V84'
 
 $02VBSTR
 2
 1 1 2 3 4 5 6 7 8 9
 2 2 1 3 4 5 6 7 8 9

