#! GPF(9)/D95 PRINTALL

TEST C2H5OH

0 1
6  -0.4413   1.9095    -0.1486
1   0.1529   2.7834    -0.4194
1  -1.2624   1.8366    -0.8622
1  -0.8754   2.0884     0.8352
1  -0.2076  -0.2379     0.0887
6   0.4029   0.6280    -0.1666
1   0.8338   0.4543    -1.1531
1   2.0387   1.4420     0.5056
8   1.4477   0.7230     0.7814
 

  $MACROITER
   20

  $ECONV
  8
                                      
