#! VB(2)/cc-pVDZ printall

H2 cc-pVDZ, bovb using extremely large DPWEIGHT 

0 1
1 0.0 0.0  0.37
1 0.0 0.0 -0.37


 $GRPDIM
 10

 $01VBSTR
 3
 1 2
 3 3
 4 4

 $01VBORB
 AO 1
 AO 6
 AO 2
 AO 7
 AO 3
 AO 4
 AO 5
 AO 8
 AO 9
 AO 10

 $DPWEIGHT
 1000000

 $01LENHANCE
 4
 1,1,1
 2,1,2
 3,1,1
 4,1,2


 $LDIAGVB

 $01VBSCF
 0.00001,100

