#! CASVB(5,4)/D95 PRINTALL 

TEST H2F. CASVB WITH 5 ELECTRONS IN 4 ORBITALS

0 2
1    .000000 -1.18000  0.0
9    .000000   .00000  0.0
1    .000000  1.18000  0.0

 
 $LMOGRPMODIFY
 6
 1,1
 2,2
 3,2
 4,1
 5,1
 6,2

 $GRPDIM
 3,4

 $02VBORB
 2->3
 3->1
 2->1
 1->2

 $LOCVBO
 4
 4,1,2
 5,1,3
 6,1,2
 7,1,1
 
 
