#! CASVB(4,4)/STO-3G PRINTALL

TMM TRIPLET

0 3
1     0.0000000000        0.0000000000        0.0000000000
1     0.0000000000        1.0000000000        0.0000000000 
1     0.8660254038       -0.5000000000        0.0000000000
1    -0.8660254038       -0.5000000000        0.0000000000


 $GRPDIM
 4

 $01VBORB
 1-2
 3-4

 $SPDEN

