#! SCVB(4)/STO-3G PRINTALL

TMM TRIPLET

0 3
1     0.0000000000        0.0000000000        0.0000000000
1     0.0000000000        1.0000000000        0.0000000000 
1     0.8660254038       -0.5000000000        0.0000000000
1    -0.8660254038       -0.5000000000        0.0000000000


 $GRPDIM
 4

 $01VBORB
 1-2
 3-4

 $01LENHANCE
 4,1000000.0
 1,1,1
 2,1,2
 3,1,3
 4,1,4

 $ECONV
 10

 $MACROITER
 2000

 $SPDEN

