#! SC(5)/STO-3G PRINTALL

TMM TRIPLET

0 2
1     0.0000000000        0.0000000000        0.0000000000
1     0.0000000000        1.0000000000        0.0000000000 
1     0.8660254038       -0.5000000000        0.0000000000
1    -0.8660254038       -0.5000000000        0.0000000000
1     2.0000000000        2.0000000000        2.0000000000


 $01VBORB
 1-2
 3-4
 5->1

 $DPWEIGHT
 0.000001

 $01LENHANCE
 5
 1,1,1
 2,1,2
 3,1,3
 4,1,4
 5,1,5

 $ECONV
 10

 $MACROITER
 2000

