#! GPF(6)/D95 UNITS=BOHR NOBIAS PRINTALL

TMM TRIPLET

0 3
6     0.0000000000        0.0000000000        0.0000000000
6     0.0000000000        2.6985287117        0.0000000000
6     2.3369944172       -1.3492643558        0.0000000000
6    -2.3369944172       -1.3492643558        0.0000000000
1    -1.7528496640        3.7475875942        0.0000000000
1     1.7528496640        3.7475875942        0.0000000000
1     4.1219308914       -0.3557814591        0.0000000000
1     2.3690812275       -3.3918061351        0.0000000000
1    -4.1219308914       -0.3557814591        0.0000000000
1    -2.3690812275       -3.3918061351        0.0000000000
                                                                
 $GENCTL
 8,6,4,4,4,4
 1,2,2,2,2,2
 
 $GRPDIM
 4,6,4,4,4,8

 
 $VBGA
 1-2 => 2
 1-3 => 2
 1-4 => 2
 2-5 => 3
 2-6 => 3
 3-7 => 4
 3-8 => 4
 4-9 => 5
 4-10 => 5
 MC(1) => 6
 MC(2) => 6
 

 $AOGROUP
 8
 7,17,27,37,10,20,30,40
 6,6, 6, 6, 6, 6, 6, 6

 $VBSCF
 0.001,10

 $06VBSTR
 3
   1  2  3  4 
   1  3  4  2 
   1  4  2  3

 $06VBSCF
 0.005,10

 $NOTROT
 6
 6,1
 6,2
 6,3
 6,4
 6,5
 6,7
